/*--------------------------------*- C++ -*----------------------------------*\    
| =========                 |                                                 |
| \      /  F ield         | OpenFOAM: The Open Source CFD Toolbox            |
|  \    /   O peration     | Version:  1.6                                    |
|   \  /    A nd           | Web:      http://www.OpenFOAM.org                |
|    \/     M anipulation  |                                                  |
\*---------------------------------------------------------------------------*/
FoamFile
{
    version     2.0;
    format      ascii;
    class       dictionary;
    object      turbineProperties;
}
// * * * * * * * * * * * * * * * * * * * * * * * * * * * * * * * * * * * * * //

globalProperties
{
    outputControl        "timeStep";
    outputInterval       1;
}



turbine0
{
    turbineType          "NREL5MWRef20";
    baseLocation         (300 502.5 0.0);
    nRadial              64;
    azimuthMaxDis        2.0;
    nAvgSector           1;
    pointDistType        "uniform";
    pointInterpType      "linear";
    bladeUpdateType      "oldPosition";
    epsilon              20.0;
    forceScalar          1.0;
    inflowVelocityScalar 0.94;
    tipRootLossCorrType  "Glauert";
    rotationDir          "cw";
    Azimuth              0.0;
    RotSpeed             9.15519863;
    TorqueGen            0.0;
    Pitch                0.0;
    NacYaw             	 270.0;
    fluidDensity         1.225;
	Ct					 1.5;
	XChi				 0.9;
}
}

